@<TRIPOS>MOLECULE
C5N
   73    76     1     0     0
SMALL
resp


@<TRIPOS>ATOM
      1	C57         71.573  63.358  37.553 c3        1 C5N       -0.061806
      2	C58         72.054  63.555  38.997 c3        1 C5N       -0.014319
      3	C59         70.879  63.787  39.938 c3        1 C5N       -0.048781
      4	C60         69.884  62.621  39.831 c3        1 C5N       -0.033746
      5	C61         69.435  62.368  38.406 c2        1 C5N       -0.143195
      6	C6          68.131  62.298  38.107 c2        1 C5N       -0.220852
      7	C7          67.571  62.019  36.742 c3        1 C5N       -0.052078
      8	C8          68.626  61.505  35.750 c3        1 C5N       -0.024627
      9	C9          69.938  62.315  35.912 c3        1 C5N       -0.026941
     10 C62         70.542  62.204  37.356 c3        1 C5N        0.379985
     11 C11         70.956  61.999  34.792 c3        1 C5N       -0.101650
     12 C12         70.370  62.070  33.368 c3        1 C5N       -0.119694
     13 C13         69.130  61.167  33.210 c3        1 C5N        0.395459
     14 C14         68.122  61.615  34.305 c3        1 C5N        0.028701
     15 C15         66.808  60.918  33.924 c3        1 C5N       -0.145709
     16 C16         66.830  60.919  32.371 c3        1 C5N       -0.055632
     17 C17         68.256  61.394  31.928 c3        1 C5N       -0.105092
     18 C18         69.517  59.677  33.337 c3        1 C5N       -0.426124
     19 C19         71.243  60.838  37.579 c3        1 C5N       -0.386551
     20 C20         68.695  60.770  30.577 c3        1 C5N        0.289138
     21 C21         70.064  61.272  30.093 c3        1 C5N       -0.423339
     22 C22         67.610  61.034  29.502 c3        1 C5N       -0.153571
     23 C23         67.353  59.916  28.475 c3        1 C5N        0.038378
     24 C24         66.590  60.367  27.221 c3        1 C5N       -0.185522
     25 C25         66.361  59.267  26.164 c3        1 C5N        0.315280
     26 C26         65.953  59.890  24.820 c3        1 C5N       -0.396159
     27 C27         67.583  58.355  25.983 c3        1 C5N       -0.396159
     28 H81         71.225  63.890  40.976 hc        1 C5N        0.011042
     29 H82         72.441  63.187  36.906 hc        1 C5N        0.008035
     30 H83         71.110  64.293  37.210 hc        1 C5N        0.008035
     31 H84         72.741  64.407  39.053 hc        1 C5N        0.007983
     32 H85         72.612  62.680  39.352 hc        1 C5N        0.007983
     33 H86         70.365  64.717  39.638 h1        1 C5N        0.011042
     34 H87         69.008  62.810  40.466 hc        1 C5N        0.031831
     35 H88         70.387  61.736  40.247 hc        1 C5N        0.031831
     36 H9          67.405  62.451  38.904 ha        1 C5N        0.113184
     37 H10         67.109  62.938  36.344 hc        1 C5N        0.045718
     38 H11         66.748  61.296  36.825 hc        1 C5N        0.045718
     39 H12         68.823  60.450  35.985 hc        1 C5N        0.033611
     40 H13         69.649  63.371  35.790 hc        1 C5N        0.011571
     41 H14         71.378  61.001  34.945 hc        1 C5N        0.033873
     42 H15         71.801  62.693  34.855 hc        1 C5N        0.033873
     43 H16         71.158  61.808  32.655 hc        1 C5N        0.013343
     44 H17         70.080  63.106  33.143 hc        1 C5N        0.013343
     45 H18         67.964  62.692  34.125 hc        1 C5N        0.002813
     46 H19         65.930  61.429  34.328 hc        1 C5N        0.034308
     47 H20         66.785  59.894  34.318 hc        1 C5N        0.034308
     48 H21         66.055  61.575  31.964 hc        1 C5N        0.026419
     49 H22         66.622  59.917  31.978 hc        1 C5N        0.026419
     50 H23         68.217  62.484  31.776 hc        1 C5N       -0.006880
     51 H24         68.656  59.016  33.193 hc        1 C5N        0.089225
     52 H25         70.264  59.405  32.585 hc        1 C5N        0.089225
     53 H26         69.944  59.440  34.313 hc        1 C5N        0.089225
     54 H27         71.642  60.754  38.593 hc        1 C5N        0.090065
     55 H28         70.546  60.008  37.436 hc        1 C5N        0.090065
     56 H29         72.084  60.702  36.893 hc        1 C5N        0.090065
     57 H30         68.765  59.683  30.724 hc        1 C5N       -0.037345
     58 H31         70.316  60.855  29.113 hc        1 C5N        0.094522
     59 H32         70.073  62.365  29.998 hc        1 C5N        0.094522
     60 H33         70.869  60.991  30.774 hc        1 C5N        0.094522
     61 H34         67.884  61.950  28.959 hc        1 C5N        0.032344
     62 H35         66.658  61.254  30.000 hc        1 C5N        0.032344
     63 H36         66.816  59.081  28.943 hc        1 C5N        0.006520
     64 H37         68.329  59.511  28.183 hc        1 C5N        0.006520
     65 H38         67.126  61.207  26.751 hc        1 C5N        0.046219
     66 H39         65.610  60.764  27.517 hc        1 C5N        0.046219
     67 H40         65.522  58.644  26.511 hc        1 C5N       -0.020171
     68 H41         65.750  59.118  24.068 hc        1 C5N        0.093519
     69 H42         66.752  60.531  24.427 hc        1 C5N        0.093519
     70 H43         65.053  60.506  24.920 hc        1 C5N        0.093519
     71 H44         67.391  57.590  25.222 hc        1 C5N        0.093519
     72 H45         68.455  58.934  25.656 hc        1 C5N        0.093519
     73 H46         67.854  57.838  26.907 hc        1 C5N        0.093519
@<TRIPOS>BOND
      1     1     2 1  
      2     1    10 1  
      3     1    29 1  
      4     1    30 1  
      5     2     3 1  
      6     2    31 1  
      7     2    32 1  
      8     3     4 1  
      9     3    33 1  
     10     3    28 1  
     11     4     5 1  
     12     4    34 1  
     13     4    35 1  
     14     5     6 2  
     15     5    10 1  
     16     6     7 1  
     17     6    36 1  
     18     7     8 1  
     19     7    37 1  
     20     7    38 1  
     21     8     9 1  
     22     8    14 1  
     23     8    39 1  
     24     9    10 1  
     25     9    11 1  
     26     9    40 1  
     27    10    19 1  
     28    11    12 1  
     29    11    41 1  
     30    11    42 1  
     31    12    13 1  
     32    12    43 1  
     33    12    44 1  
     34    13    14 1  
     35    13    17 1  
     36    13    18 1  
     37    14    15 1  
     38    14    45 1  
     39    15    16 1  
     40    15    46 1  
     41    15    47 1  
     42    16    17 1  
     43    16    48 1  
     44    16    49 1  
     45    17    20 1  
     46    17    50 1  
     47    18    51 1  
     48    18    52 1  
     49    18    53 1  
     50    19    54 1  
     51    19    55 1  
     52    19    56 1  
     53    20    21 1  
     54    20    22 1  
     55    20    57 1  
     56    21    58 1  
     57    21    59 1  
     58    21    60 1  
     59    22    23 1  
     60    22    61 1  
     61    22    62 1  
     62    23    24 1  
     63    23    63 1  
     64    23    64 1  
     65    24    25 1  
     66    24    65 1  
     67    24    66 1  
     68    25    26 1  
     69    25    27 1  
     70    25    67 1  
     71    26    68 1  
     72    26    69 1  
     73    26    70 1  
     74    27    71 1  
     75    27    72 1  
     76    27    73 1  
@<TRIPOS>SUBSTRUCTURE
     1 C5N         1 TEMP              0 ****  ****    0 ROOT
